[Format]      =  4.0
[Frequency]   =  0
[Precision]   =  1e-008
[MinAngle]    =  30
[DoSmartMesh] =  1
[Depth]       =  10
[LengthUnits] =  millimeters
[ProblemType] =  planar
[Coordinates] =  cartesian
[ACSolver]    =  0
[PrevType]    =  0
[PrevSoln]    =  ""
[Comment]     =  "Add comments here."
[PointProps]   = 0
[BdryProps]   = 3
  <BeginBdry>
    <BdryName> = "Zero"
    <BdryType> = 0
    <A_0> = 0
    <A_1> = 0
    <A_2> = 0
    <Phi> = 0
    <c0> = 0
    <c0i> = 0
    <c1> = 0
    <c1i> = 0
    <Mu_ssd> = 0
    <Sigma_ssd> = 0
    <innerangle> = 0
    <outerangle> = 0
  <EndBdry>
  <BeginBdry>
    <BdryName> = "PeriodicA"
    <BdryType> = 4
    <A_0> = 0
    <A_1> = 0
    <A_2> = 0
    <Phi> = 0
    <c0> = 0
    <c0i> = 0
    <c1> = 0
    <c1i> = 0
    <Mu_ssd> = 0
    <Sigma_ssd> = 0
    <innerangle> = 0
    <outerangle> = 0
  <EndBdry>
  <BeginBdry>
    <BdryName> = "PeriodicB"
    <BdryType> = 4
    <A_0> = 0
    <A_1> = 0
    <A_2> = 0
    <Phi> = 0
    <c0> = 0
    <c0i> = 0
    <c1> = 0
    <c1i> = 0
    <Mu_ssd> = 0
    <Sigma_ssd> = 0
    <innerangle> = 0
    <outerangle> = 0
  <EndBdry>
[BlockProps]  = 5
  <BeginBlock>
    <BlockName> = "Air"
    <Mu_x> = 1
    <Mu_y> = 1
    <H_c> = 0
    <H_cAngle> = 0
    <J_re> = 0
    <J_im> = 0
    <Sigma> = 0
    <d_lam> = 0
    <Phi_h> = 0
    <Phi_hx> = 0
    <Phi_hy> = 0
    <LamType> = 0
    <LamFill> = 1
    <NStrands> = 0
    <WireD> = 0
    <BHPoints> = 0
  <EndBlock>
  <BeginBlock>
    <BlockName> = "Iron"
    <Mu_x> = 14872
    <Mu_y> = 14872
    <H_c> = 0
    <H_cAngle> = 0
    <J_re> = 0
    <J_im> = 0
    <Sigma> = 0
    <d_lam> = 10.44
    <Phi_h> = 0
    <Phi_hx> = 0
    <Phi_hy> = 0
    <LamType> = 0
    <LamFill> = 1
    <NStrands> = 0
    <WireD> = 0
    <BHPoints> = 0
  <EndBlock>
  <BeginBlock>
    <BlockName> = "NdFe"
    <Mu_x> = 1.0449999999999999
    <Mu_y> = 1.0449999999999999
    <H_c> = 883310
    <H_cAngle> = 0
    <J_re> = 0
    <J_im> = 0
    <Sigma> = 0
    <d_lam> = 0.69399999999999995
    <Phi_h> = 0
    <Phi_hx> = 0
    <Phi_hy> = 0
    <LamType> = 0
    <LamFill> = 1
    <NStrands> = 0
    <WireD> = 0
    <BHPoints> = 0
  <EndBlock>
  <BeginBlock>
    <BlockName> = "Soft magnetic ferrite (Fe-Ni-Zn-V)"
    <Mu_x> = 1
    <Mu_y> = 1
    <H_c> = 0
    <H_cAngle> = 0
    <J_re> = 0
    <J_im> = 0
    <Sigma> = 0
    <d_lam> = 0
    <Phi_h> = 0
    <Phi_hx> = 0
    <Phi_hy> = 0
    <LamType> = 0
    <LamFill> = 1
    <NStrands> = 0
    <WireD> = 0
    <BHPoints> = 27
      0	0
      0.068850756910128444	44.63519753086419
      0.079231351768504585	47.996938271604932
      0.096629805222867599	54.360481481481472
      0.10428518223687107	57.254135802469136
      0.11791981395323581	63.513925925925903
      0.12337443073651684	66.205407407407364
      0.15091206297703	83.18401234567898
      0.19174942986281673	128.63864197530862
      0.20263507284968685	150.32185185185182
      0.2390242052470492	280.2956790123456
      0.24393625127711305	307.76197530864192
      0.24555614462251754	317.50148148148139
      0.26724361274612662	486.03790123456781
      0.29056515192641547	775.60827160493818
      0.29618977849347761	869.47777777777765
      0.31289613290425267	1359.0728395061724
      0.31335557743458525	1373.2691358024688
      0.33594174880643024	2431.4518518518512
      0.36483908041448099	5699.1765432098764
      0.36848205798752964	6389.1543209876527
      0.37676605298145499	8458.0074074074037
      0.47711675995875713	61532.617283950603
      0.49488110240278821	73419.641975308608
      0.6669901800055722	197003.70370370365
      0.82853938560684104	321027.90123456786
      0.83272023087673985	324350
  <EndBlock>
  <BeginBlock>
    <BlockName> = "Mu Metal"
    <Mu_x> = 82910
    <Mu_y> = 82910
    <H_c> = 0
    <H_cAngle> = 0
    <J_re> = 0
    <J_im> = 0
    <Sigma> = 1.8
    <d_lam> = 0
    <Phi_h> = 0
    <Phi_hx> = 0
    <Phi_hy> = 0
    <LamType> = 0
    <LamFill> = 1
    <NStrands> = 0
    <WireD> = 0
    <BHPoints> = 31
      0	0
      0.080001000000000003	0.79577500000000001
      0.099140000000000006	1.0342340000000001
      0.12679699999999999	1.344149
      0.16478400000000001	1.7469330000000001
      0.21423800000000001	2.270413
      0.27441399999999999	2.9507569999999999
      0.34069300000000002	3.8349700000000002
      0.39480599999999999	4.9841449999999998
      0.43570300000000001	6.4776769999999999
      0.46653800000000001	8.4187550000000009
      0.49254100000000001	10.941490999999999
      0.51263599999999998	14.220181
      0.53089299999999995	18.481352000000001
      0.54834099999999997	24.019411000000002
      0.56394500000000003	31.216987
      0.57866499999999998	40.571362999999998
      0.59203600000000001	52.728839999999998
      0.60396099999999997	68.529386000000002
      0.61424699999999999	89.064670000000007
      0.62285900000000005	115.75348700000001
      0.63014599999999998	150.439784
      0.63628200000000001	195.52006
      0.64158999999999999	254.10893899999999
      0.64653300000000002	330.25436300000001
      0.65073700000000001	429.217266
      0.65423600000000004	557.835058
      0.65707000000000004	724.99402199999997
      0.65927800000000003	942.24327400000004
      0.66090599999999999	1224.592701
      0.66200000000000003	1591.55
  <EndBlock>
[CircuitProps]  = 0
[NumPoints] = 21
11.5	11.5	0	0
-11.5	11.5	0	0
-11.5	-11.5	0	0
11.5	-11.5	0	0
0	0	0	0
0	-0.5	0	0
2	-0.5	0	0
2	-2.5	0	0
0	-2.5	0	0
4	-0.5	0	0
4	-2.5	0	0
-2	-0.5	0	0
-2	-2.5	0	0
-4	-0.5	0	0
-4	-2.5	0	0
-2.5	0.5	0	0
2.5	0.5	0	0
2.5	1	0	0
-2.5	1	0	0
-4	-3.5	0	0
4	-3.5	0	0
[NumSegments] = 24
0	1	0.5	1	0	0
1	2	0.5	1	0	0
2	3	0.5	1	0	0
0	3	-1	1	0	0
13	11	-1	0	0	0
11	5	-1	0	0	0
5	6	-1	0	0	0
6	9	-1	0	0	0
9	10	-1	0	0	0
10	7	-1	0	0	0
7	8	-1	0	0	0
8	12	-1	0	0	0
12	14	-1	0	0	0
14	13	-1	0	0	0
15	16	-1	0	0	0
16	17	-1	0	0	0
17	18	-1	0	0	0
18	15	-1	0	0	0
11	12	-1	0	0	0
5	8	-1	0	0	0
6	7	-1	0	0	0
14	19	-1	0	0	0
19	20	-1	0	0	0
20	10	-1	0	0	0
[NumArcSegments] = 0
[NumHoles] = 0
[NumBlockLabels] = 7
1	8	1	-1	0	0	0	1	0
0	0.75	1	-1	0	0	0	1	0
3	-1.5	3	-1	0	90	0	1	0
1	-1.5	3	-1	0	-90	0	1	0
-1	-1.5	3	-1	0	90	0	1	0
-3	-1.5	3	-1	0	-90	0	1	0
0	-3	5	-1	0	0	0	1	0
