[Format]      =  4.0
[Frequency]   =  0
[Precision]   =  1e-008
[MinAngle]    =  30
[DoSmartMesh] =  1
[Depth]       =  1
[LengthUnits] =  inches
[ProblemType] =  planar
[Coordinates] =  cartesian
[ACSolver]    =  0
[PrevType]    =  0
[PrevSoln]    =  ""
[Comment]     =  "Add comments here."
[PointProps]   = 0
[BdryProps]   = 1
  <BeginBdry>
    <BdryName> = "Zero"
    <BdryType> = 0
    <A_0> = 0
    <A_1> = 0
    <A_2> = 0
    <Phi> = 0
    <c0> = 0
    <c0i> = 0
    <c1> = 0
    <c1i> = 0
    <Mu_ssd> = 0
    <Sigma_ssd> = 0
    <innerangle> = 0
    <outerangle> = 0
  <EndBdry>
[BlockProps]  = 4
  <BeginBlock>
    <BlockName> = "Ceramic 8"
    <Mu_x> = 1.4384600000000001
    <Mu_y> = 1.4384600000000001
    <H_c> = 233568
    <H_cAngle> = 0
    <J_re> = 0
    <J_im> = 0
    <Sigma> = 0
    <d_lam> = 0
    <Phi_h> = 0
    <Phi_hx> = 0
    <Phi_hy> = 0
    <LamType> = 0
    <LamFill> = 1
    <NStrands> = 0
    <WireD> = 0
    <BHPoints> = 9
      0	0
      0.040029000000000002	1488.09925
      0.069106000000000001	5665.9179999999997
      0.087951000000000001	15231.1335
      0.11024	30247.407749999998
      0.15995000000000001	63009.464500000002
      0.24912000000000001	128493.78925
      0.32113999999999998	180339.326275
      0.39145000000000002	233567.92025
  <EndBlock>
  <BeginBlock>
    <BlockName> = "Pure Iron"
    <Mu_x> = 14872
    <Mu_y> = 14872
    <H_c> = 0
    <H_cAngle> = 0
    <J_re> = 0
    <J_im> = 0
    <Sigma> = 10.44
    <d_lam> = 0
    <Phi_h> = 0
    <Phi_hx> = 0
    <Phi_hy> = 0
    <LamType> = 0
    <LamFill> = 1
    <NStrands> = 0
    <WireD> = 0
    <BHPoints> = 21
      0	0
      0.22706499999999999	13.898400000000001
      0.45412999999999998	27.796700000000001
      0.68119499999999999	42.397399999999998
      0.90825999999999996	61.415700000000001
      1.13533	82.382400000000004
      1.36239	144.66900000000001
      1.58935	897.75999999999999
      1.81236	4581.7399999999998
      2.01004	17736.200000000001
      2.1331600000000002	41339.300000000003
      2.1999900000000001	68321.800000000003
      2.2547899999999998	95685.5
      2.2999299999999998	123355
      2.3425099999999999	151083
      2.3787600000000002	178954
      2.4150100000000001	206825
      2.45126	234696
      2.4874999999999998	262568
      2.5237500000000002	290439
      2.5600000000000001	318310
  <EndBlock>
  <BeginBlock>
    <BlockName> = "Air"
    <Mu_x> = 1
    <Mu_y> = 1
    <H_c> = 0
    <H_cAngle> = 0
    <J_re> = 0
    <J_im> = 0
    <Sigma> = 0
    <d_lam> = 0
    <Phi_h> = 0
    <Phi_hx> = 0
    <Phi_hy> = 0
    <LamType> = 0
    <LamFill> = 1
    <NStrands> = 0
    <WireD> = 0
    <BHPoints> = 0
  <EndBlock>
  <BeginBlock>
    <BlockName> = "416 Stainless Steel"
    <Mu_x> = 440
    <Mu_y> = 440
    <H_c> = 0
    <H_cAngle> = 0
    <J_re> = 0
    <J_im> = 0
    <Sigma> = 0
    <d_lam> = 0
    <Phi_h> = 0
    <Phi_hx> = 0
    <Phi_hy> = 0
    <LamType> = 0
    <LamFill> = 1
    <NStrands> = 0
    <WireD> = 0
    <BHPoints> = 12
      0	0
      0.20039999999999999	318.31
      0.42559999999999998	477.46499999999997
      0.76100000000000001	795.77499999999998
      1.097	1591.55
      1.2330000000000001	2387.3249999999998
      1.335	3978.875
      1.46	7957.75
      1.5900000000000001	15915.5
      1.6899999999999999	31831
      1.724232	44456.279999999999
      1.74	55704.25
  <EndBlock>
[CircuitProps]  = 0
[NumPoints] = 26
0	0	0	0
10	0	0	0
10	10	0	0
0	10	0	0
4	5.5	0	0
6	5.5	0	0
6.25	4.25	0	0
3.75	4.25	0	0
1	4	0	0
1	3.25	0	0
8.5	4	0	0
8.5	3.25	0	0
3.75	6.75	0	0
6.25	6.75	0	0
4.75	6.75	0	0
4.75	4.375	0	0
5.25	4.375	0	0
5.25	6.75	0	0
4.75	6.468245836551854	0	0
4.75	4.531754163448146	0	0
5.25	6.468245836551854	0	0
5.25	4.531754163448146	0	0
6	4.25	0	0
4	4.25	0	0
4.125	5.5	0	0
5.875	5.5	0	0
[NumSegments] = 20
3	0	-1	1	0	0
0	1	-1	1	0	0
1	2	-1	0	0	0
2	3	-1	0	0	0
10	11	-1	0	0	1
11	9	-1	0	0	1
9	8	-1	0	0	1
12	7	-1	0	0	0
13	6	-1	0	0	0
8	10	-1	0	0	1
14	18	-1	0	0	0
19	15	-1	0	0	0
17	20	-1	0	0	0
21	16	-1	0	0	0
7	23	-1	0	0	0
23	15	-1	0	0	0
16	22	-1	0	0	0
22	6	-1	0	0	0
13	17	-1	0	0	0
14	12	-1	0	0	0
[NumArcSegments] = 6
5	20	75.522487814070075	1	0	0	0	1
4	19	75.522487814070075	1	0	0	0	1
18	4	75.522487814070075	1	0	0	0	1
21	5	75.522487814070075	1	0	0	0	1
24	25	180	1	0	0	0	1
25	24	180	1	0	0	0	1
[NumHoles] = 0
[NumBlockLabels] = 5
5	5.5	1	-1	0	0	0	1	0
4.75	9.5	3	-1	0	0	0	1	0
7	3.75	2	-1	0	0	1	1	0
6	6.5	4	-1	0	0	0	1	0
4	6.5	4	-1	0	0	0	1	0
